astex_1ig3
 OpenBabel08221811423D

 35 36  0  0  0  0  0  0  0  0999 V2000
    6.0423    1.1698    5.7304 C   0  0  0  0  0  0  0  0  0  0  0  0
    6.1908    1.0402    4.2473 C   0  0  0  0  0  0  0  0  0  0  0  0
    7.4302    0.9293    3.7424 N   0  0  0  0  0  0  0  0  0  0  0  0
    7.5430    0.6940    2.4287 C   0  0  0  0  0  0  0  0  0  0  0  0
    8.8480    0.7426    1.9345 N   0  0  0  0  0  0  0  0  0  0  0  0
    6.4631    0.4757    1.5996 C   0  0  0  0  0  0  0  0  0  0  0  0
    6.5834    0.0189    0.1785 C   0  0  0  0  0  0  0  0  0  0  0  0
    7.2640   -1.2910    0.0750 N   0  3  0  0  0  0  0  0  0  0  0  0
    8.5827   -1.3437   -0.0570 C   0  0  0  0  0  0  0  0  0  0  0  0
    9.1629   -2.9422   -0.1224 S   0  0  0  0  0  0  0  0  0  0  0  0
    7.5795   -3.5878    0.0387 C   0  0  0  0  0  0  0  0  0  0  0  0
    7.3681   -5.0849   -0.0146 C   0  0  0  0  0  0  0  0  0  0  0  0
    7.1102   -5.6281   -1.4213 C   0  0  0  0  0  0  0  0  0  0  0  0
    5.9462   -5.0399   -1.9875 O   0  0  0  0  0  0  0  0  0  0  0  0
    6.6589   -2.5554    0.1707 C   0  0  0  0  0  0  0  0  0  0  0  0
    5.1955   -2.7100    0.3567 C   0  0  0  0  0  0  0  0  0  0  0  0
    5.2364    0.6927    2.1967 C   0  0  0  0  0  0  0  0  0  0  0  0
    5.0759    0.9621    3.5030 N   0  0  0  0  0  0  0  0  0  0  0  0
    6.9422    1.5972    6.1816 H   0  0  0  0  0  0  0  0  0  0  0  0
    5.8770    0.1756    6.1596 H   0  0  0  0  0  0  0  0  0  0  0  0
    5.1884    1.8044    5.9841 H   0  0  0  0  0  0  0  0  0  0  0  0
    9.4353    0.8694    2.7665 H   0  0  0  0  0  0  0  0  0  0  0  0
    8.9751    1.5806    1.3687 H   0  0  0  0  0  0  0  0  0  0  0  0
    7.0669    0.7807   -0.4356 H   0  0  0  0  0  0  0  0  0  0  0  0
    5.5818   -0.1036   -0.2577 H   0  0  0  0  0  0  0  0  0  0  0  0
    9.2362   -0.4794   -0.1100 H   0  0  0  0  0  0  0  0  0  0  0  0
    6.5256   -5.3568    0.6336 H   0  0  0  0  0  0  0  0  0  0  0  0
    8.2545   -5.5819    0.3982 H   0  0  0  0  0  0  0  0  0  0  0  0
    6.9687   -6.7151   -1.3852 H   0  0  0  0  0  0  0  0  0  0  0  0
    7.9522   -5.4246   -2.0894 H   0  0  0  0  0  0  0  0  0  0  0  0
    5.2210   -5.6895   -1.9276 H   0  0  0  0  0  0  0  0  0  0  0  0
    4.9772   -3.6200    0.9238 H   0  0  0  0  0  0  0  0  0  0  0  0
    4.6981   -2.8128   -0.6109 H   0  0  0  0  0  0  0  0  0  0  0  0
    4.7423   -1.8894    0.9131 H   0  0  0  0  0  0  0  0  0  0  0  0
    4.3017    0.6555    1.6417 H   0  0  0  0  0  0  0  0  0  0  0  0
  1  2  1  0  0  0  0
  1 19  1  0  0  0  0
  1 20  1  0  0  0  0
  1 21  1  0  0  0  0
  2  3  1  0  0  0  0
  2 18  2  0  0  0  0
  3  4  2  0  0  0  0
  4  5  1  0  0  0  0
  4  6  1  0  0  0  0
  5 22  1  0  0  0  0
  5 23  1  0  0  0  0
  6  7  1  0  0  0  0
  6 17  2  0  0  0  0
  7  8  1  0  0  0  0
  7 24  1  0  0  0  0
  7 25  1  0  0  0  0
  8  9  2  0  0  0  0
  8 15  1  0  0  0  0
  9 10  1  0  0  0  0
  9 26  1  0  0  0  0
 10 11  1  0  0  0  0
 11 12  1  0  0  0  0
 11 15  2  0  0  0  0
 12 13  1  0  0  0  0
 12 27  1  0  0  0  0
 12 28  1  0  0  0  0
 13 14  1  0  0  0  0
 13 29  1  0  0  0  0
 13 30  1  0  0  0  0
 14 31  1  0  0  0  0
 15 16  1  0  0  0  0
 16 32  1  0  0  0  0
 16 33  1  0  0  0  0
 16 34  1  0  0  0  0
 17 18  1  0  0  0  0
 17 35  1  0  0  0  0
M  CHG  1   8   1
M  END
$$$$
