omegacsd_FUPFIF
 OpenBabel08131814373D

 41 42  0  0  1  0  0  0  0  0999 V2000
    2.9812    0.1727    0.9745 O   0  0  0  0  0  3  0  0  0  0  0  0
    2.3998   -0.3023    0.0009 C   0  0  0  0  0  7  0  0  0  0  0  0
    3.0713   -0.7717   -1.1403 N   0  0  0  0  0  6  0  0  0  0  0  0
    4.4687   -0.4964   -1.4713 C   0  0  0  0  0  8  0  0  0  0  0  0
    2.3064   -1.6607   -2.0633 C   0  0  1  0  0  8  0  0  0  0  0  0
    3.1359   -2.2040   -3.2439 C   0  0  0  0  0  8  0  0  0  0  0  0
    1.5892   -2.7857   -1.3208 C   0  0  0  0  0  7  0  0  0  0  0  0
    0.2075   -2.9617   -1.5196 C   0  0  0  0  0  7  0  0  0  0  0  0
   -0.4739   -4.0273   -0.9258 C   0  0  0  0  0  7  0  0  0  0  0  0
    0.2065   -4.9312   -0.1236 C   0  0  0  0  0  7  0  0  0  0  0  0
    1.5712   -4.7601    0.1018 C   0  0  0  0  0  7  0  0  0  0  0  0
    2.2556   -3.6882   -0.4810 C   0  0  0  0  0  7  0  0  0  0  0  0
    0.9209   -0.4166    0.1440 C   0  0  0  0  0  7  0  0  0  0  0  0
    0.0041    0.3375   -0.6162 C   0  0  0  0  0  7  0  0  0  0  0  0
   -1.3637    0.0619   -0.4916 C   0  0  0  0  0  7  0  0  0  0  0  0
   -1.7995   -0.8543    0.4480 C   0  0  0  0  0  7  0  0  0  0  0  0
   -0.9156   -1.4579    1.2526 N   0  3  0  0  0  7  0  0  0  0  0  0
    0.4201   -1.2753    1.1564 C   0  0  0  0  0  7  0  0  0  0  0  0
    1.2422   -1.9598    2.2042 C   0  0  0  0  0  8  0  0  0  0  0  0
    0.3890    1.4596   -1.5456 C   0  0  0  0  0  8  0  0  0  0  0  0
    4.9029    0.2766   -0.8385 H   0  0  0  0  0  2  0  0  0  0  0  0
    4.5527   -0.1251   -2.4947 H   0  0  0  0  0  2  0  0  0  0  0  0
    5.0390   -1.4246   -1.3734 H   0  0  0  0  0  2  0  0  0  0  0  0
    1.5371   -1.0295   -2.5258 H   0  0  0  0  0  2  0  0  0  0  0  0
    3.9689   -2.8413   -2.9209 H   0  0  0  0  0  2  0  0  0  0  0  0
    3.5634   -1.3811   -3.8288 H   0  0  0  0  0  2  0  0  0  0  0  0
    2.5129   -2.8040   -3.9169 H   0  0  0  0  0  2  0  0  0  0  0  0
   -0.3495   -2.2836   -2.1638 H   0  0  0  0  0  2  0  0  0  0  0  0
   -1.5415   -4.1556   -1.1061 H   0  0  0  0  0  2  0  0  0  0  0  0
   -0.3177   -5.7739    0.3191 H   0  0  0  0  0  2  0  0  0  0  0  0
    2.1083   -5.4758    0.7203 H   0  0  0  0  0  2  0  0  0  0  0  0
    3.3207   -3.5966   -0.2913 H   0  0  0  0  0  2  0  0  0  0  0  0
   -2.0916    0.5776   -1.1181 H   0  0  0  0  0  2  0  0  0  0  0  0
   -2.8450   -1.1011    0.5965 H   0  0  0  0  0  2  0  0  0  0  0  0
   -1.2756   -2.0786    1.9827 H   0  0  0  0  0  2  0  0  0  0  0  0
    0.6305   -2.6567    2.7896 H   0  0  0  0  0  2  0  0  0  0  0  0
    1.6386   -1.2230    2.9132 H   0  0  0  0  0  2  0  0  0  0  0  0
    2.0601   -2.5347    1.7657 H   0  0  0  0  0  2  0  0  0  0  0  0
    1.4278    1.7697   -1.4270 H   0  0  0  0  0  2  0  0  0  0  0  0
   -0.2270    2.3396   -1.3382 H   0  0  0  0  0  2  0  0  0  0  0  0
    0.2155    1.1593   -2.5857 H   0  0  0  0  0  2  0  0  0  0  0  0
  1  2  2  0  0  0  0
  2  3  1  0  0  0  0
  2 13  1  0  0  0  0
  3  4  1  0  0  0  0
  3  5  1  0  0  0  0
  4 21  1  0  0  0  0
  4 22  1  0  0  0  0
  4 23  1  0  0  0  0
  5  6  1  0  0  0  0
  5  7  1  0  0  0  0
  5 24  1  6  0  0  0
  6 25  1  0  0  0  0
  6 26  1  0  0  0  0
  6 27  1  0  0  0  0
  7  8  1  0  0  0  0
  7 12  2  0  0  0  0
  8  9  2  0  0  0  0
  8 28  1  0  0  0  0
  9 10  1  0  0  0  0
  9 29  1  0  0  0  0
 10 11  2  0  0  0  0
 10 30  1  0  0  0  0
 11 12  1  0  0  0  0
 11 31  1  0  0  0  0
 12 32  1  0  0  0  0
 13 14  1  0  0  0  0
 13 18  2  0  0  0  0
 14 15  2  0  0  0  0
 14 20  1  0  0  0  0
 15 16  1  0  0  0  0
 15 33  1  0  0  0  0
 16 17  2  0  0  0  0
 16 34  1  0  0  0  0
 17 18  1  0  0  0  0
 17 35  1  0  0  0  0
 18 19  1  0  0  0  0
 19 36  1  0  0  0  0
 19 37  1  0  0  0  0
 19 38  1  0  0  0  0
 20 39  1  0  0  0  0
 20 40  1  0  0  0  0
 20 41  1  0  0  0  0
M  CHG  1  17   1
M  END
$$$$
