omegacsd_CDBMPI10
 OpenBabel08111820473D

 46 48  0  0  1  0  0  0  0  0999 V2000
    1.8557    0.8857   -0.8463 O   0  0  0  0  0  3  0  0  0  0  0  0
    2.3748    0.0988   -0.0520 C   0  0  0  0  0  7  0  0  0  0  0  0
    3.0319    0.5461    1.0990 N   0  0  0  0  0  6  0  0  0  0  0  0
    4.1782   -0.0890    1.7909 C   0  0  1  0  0  8  0  0  0  0  0  0
    5.3843    0.8763    1.8833 C   0  0  0  0  0  8  0  0  0  0  0  0
    5.0061    2.1950    2.4343 N   0  0  0  0  0  6  0  0  0  0  0  0
    3.9327    2.8174    1.5867 C   0  0  1  0  0  8  0  0  0  0  0  0
    2.6871    1.8926    1.5886 C   0  0  0  0  0  8  0  0  0  0  0  0
    3.4953    4.2703    1.7306 C   0  0  0  0  0  8  0  0  0  0  0  0
    5.6526    2.5488    3.6219 C   0  0  0  0  0  7  0  0  0  0  0  0
    6.4499    1.7870    4.1861 O   0  0  0  0  0  3  0  0  0  0  0  0
    5.5010    3.8639    4.2682 C   0  0  0  0  0  7  0  0  0  0  0  0
    4.3599    4.2231    4.9698 C   0  0  0  0  0  7  0  0  0  0  0  0
    4.1711    5.5468    5.3707 C   0  0  0  0  0  7  0  0  0  0  0  0
    5.2001    6.4746    5.2192 C   0  0  0  0  0  7  0  0  0  0  0  0
    6.4302    6.0693    4.7065 C   0  0  0  0  0  7  0  0  0  0  0  0
    6.5797    4.7706    4.2180 C   0  0  0  0  0  7  0  0  0  0  0  0
    3.7545   -0.5783    3.1795 C   0  0  0  0  0  8  0  0  0  0  0  0
    2.3098   -1.3407   -0.4260 C   0  0  0  0  0  7  0  0  0  0  0  0
    1.4667   -2.1604    0.3405 C   0  0  0  0  0  7  0  0  0  0  0  0
    1.3744   -3.5295    0.0814 C   0  0  0  0  0  7  0  0  0  0  0  0
    2.1220   -4.0903   -0.9504 C   0  0  0  0  0  7  0  0  0  0  0  0
    2.9840   -3.2912   -1.7003 C   0  0  0  0  0  7  0  0  0  0  0  0
    3.0994   -1.9244   -1.4208 C   0  0  0  0  0  7  0  0  0  0  0  0
    4.5323   -0.9471    1.2193 H   0  0  0  0  0  2  0  0  0  0  0  0
    5.7825    1.0633    0.8799 H   0  0  0  0  0  2  0  0  0  0  0  0
    6.1905    0.4002    2.4498 H   0  0  0  0  0  2  0  0  0  0  0  0
    4.3610    2.7820    0.5753 H   0  0  0  0  0  2  0  0  0  0  0  0
    1.8906    2.3389    0.9851 H   0  0  0  0  0  2  0  0  0  0  0  0
    2.2911    1.7836    2.6046 H   0  0  0  0  0  2  0  0  0  0  0  0
    2.7259    4.4005    2.4973 H   0  0  0  0  0  2  0  0  0  0  0  0
    3.0003    4.5923    0.8043 H   0  0  0  0  0  2  0  0  0  0  0  0
    4.3312    4.9511    1.8985 H   0  0  0  0  0  2  0  0  0  0  0  0
    3.5898    3.4831    5.1606 H   0  0  0  0  0  2  0  0  0  0  0  0
    3.2153    5.8551    5.7839 H   0  0  0  0  0  2  0  0  0  0  0  0
    5.0499    7.5078    5.5225 H   0  0  0  0  0  2  0  0  0  0  0  0
    7.2629    6.7669    4.6660 H   0  0  0  0  0  2  0  0  0  0  0  0
    7.5343    4.4610    3.7982 H   0  0  0  0  0  2  0  0  0  0  0  0
    3.4876    0.2514    3.8443 H   0  0  0  0  0  2  0  0  0  0  0  0
    4.5641   -1.1371    3.6583 H   0  0  0  0  0  2  0  0  0  0  0  0
    2.8784   -1.2319    3.1147 H   0  0  0  0  0  2  0  0  0  0  0  0
    0.8878   -1.7331    1.1575 H   0  0  0  0  0  2  0  0  0  0  0  0
    0.7267   -4.1545    0.6917 H   0  0  0  0  0  2  0  0  0  0  0  0
    2.0466   -5.1549   -1.1585 H   0  0  0  0  0  2  0  0  0  0  0  0
    3.5755   -3.7337   -2.4985 H   0  0  0  0  0  2  0  0  0  0  0  0
    3.8200   -1.3371   -1.9804 H   0  0  0  0  0  2  0  0  0  0  0  0
  1  2  2  0  0  0  0
  2  3  1  0  0  0  0
  2 19  1  0  0  0  0
  3  4  1  0  0  0  0
  3  8  1  0  0  0  0
  4  5  1  0  0  0  0
  4 18  1  0  0  0  0
  4 25  1  6  0  0  0
  5  6  1  0  0  0  0
  5 26  1  0  0  0  0
  5 27  1  0  0  0  0
  6  7  1  0  0  0  0
  6 10  1  0  0  0  0
  7  8  1  0  0  0  0
  7  9  1  0  0  0  0
  7 28  1  6  0  0  0
  8 29  1  0  0  0  0
  8 30  1  0  0  0  0
  9 31  1  0  0  0  0
  9 32  1  0  0  0  0
  9 33  1  0  0  0  0
 10 11  2  0  0  0  0
 10 12  1  0  0  0  0
 12 13  1  0  0  0  0
 12 17  2  0  0  0  0
 13 14  2  0  0  0  0
 13 34  1  0  0  0  0
 14 15  1  0  0  0  0
 14 35  1  0  0  0  0
 15 16  2  0  0  0  0
 15 36  1  0  0  0  0
 16 17  1  0  0  0  0
 16 37  1  0  0  0  0
 17 38  1  0  0  0  0
 18 39  1  0  0  0  0
 18 40  1  0  0  0  0
 18 41  1  0  0  0  0
 19 20  1  0  0  0  0
 19 24  2  0  0  0  0
 20 21  2  0  0  0  0
 20 42  1  0  0  0  0
 21 22  1  0  0  0  0
 21 43  1  0  0  0  0
 22 23  2  0  0  0  0
 22 44  1  0  0  0  0
 23 24  1  0  0  0  0
 23 45  1  0  0  0  0
 24 46  1  0  0  0  0
M  END
$$$$
