omegapdb_1sn5
 OpenBabel08201817023D

 35 36  0  0  1  0  0  0  0  0999 V2000
   -0.6595    1.1960   -0.1245 C   0  0  0  0  0  0  0  0  0  0  0  0
    0.7350    1.1857   -0.2431 C   0  0  0  0  0  0  0  0  0  0  0  0
    1.4499   -0.0210   -0.2519 C   0  0  0  0  0  0  0  0  0  0  0  0
    0.7967   -1.2316    0.0336 C   0  0  0  0  0  0  0  0  0  0  0  0
   -0.5985   -1.2190    0.1866 C   0  0  0  0  0  0  0  0  0  0  0  0
   -1.3212   -0.0234    0.0728 C   0  0  0  0  0  0  0  0  0  0  0  0
   -1.6868   -2.9559    0.6444 I   0  0  0  0  0  0  0  0  0  0  0  0
    1.4354   -2.4490    0.1078 O   0  0  0  0  0  0  0  0  0  0  0  0
    2.7531   -2.4918    0.5149 C   0  0  0  0  0  0  0  0  0  0  0  0
    3.3446   -1.5821    1.3984 C   0  0  0  0  0  0  0  0  0  0  0  0
    4.7277   -1.6081    1.5882 C   0  0  0  0  0  0  0  0  0  0  0  0
    5.4982   -2.6001    0.9781 C   0  0  0  0  0  0  0  0  0  0  0  0
    4.8979   -3.5597    0.1690 C   0  0  0  0  0  0  0  0  0  0  0  0
    3.5247   -3.5013   -0.0687 C   0  0  0  0  0  0  0  0  0  0  0  0
    6.8542   -2.6780    1.1248 O   0  0  0  0  0  0  0  0  0  0  0  0
    5.6097   -0.0770    2.6995 I   0  0  0  0  0  0  0  0  0  0  0  0
    3.4778    0.1439   -0.8111 I   0  0  0  0  0  0  0  0  0  0  0  0
   -1.4534    2.4846   -0.1203 C   0  0  0  0  0  0  0  0  0  0  0  0
   -1.9327    3.0050   -1.4887 C   0  0  1  0  0  0  0  0  0  0  0  0
   -2.8523    1.9970   -2.2019 C   0  0  0  0  0  0  0  0  0  0  0  0
   -4.0720    1.9845   -2.0643 O   0  0  0  0  0  0  0  0  0  0  0  0
   -2.2243    1.1400   -3.0332 O   0  0  0  0  0  0  0  0  0  0  0  0
   -2.6792    4.2720   -1.2614 N   0  0  0  0  0  0  0  0  0  0  0  0
    1.2791    2.1232   -0.3410 H   0  0  0  0  0  0  0  0  0  0  0  0
   -2.4073   -0.0360    0.1638 H   0  0  0  0  0  0  0  0  0  0  0  0
    2.7479   -0.8178    1.8860 H   0  0  0  0  0  0  0  0  0  0  0  0
    5.5024   -4.3297   -0.3022 H   0  0  0  0  0  0  0  0  0  0  0  0
    3.0621   -4.2222   -0.7387 H   0  0  0  0  0  0  0  0  0  0  0  0
    7.1258   -1.9538    1.7166 H   0  0  0  0  0  0  0  0  0  0  0  0
   -0.8168    3.2369    0.3561 H   0  0  0  0  0  0  0  0  0  0  0  0
   -2.3330    2.3602    0.5296 H   0  0  0  0  0  0  0  0  0  0  0  0
   -1.1018    3.2516   -2.1569 H   0  0  0  0  0  0  0  0  0  0  0  0
   -1.2565    1.2213   -3.0875 H   0  0  0  0  0  0  0  0  0  0  0  0
   -3.5656    4.0298   -0.8030 H   0  0  0  0  0  0  0  0  0  0  0  0
   -2.9856    4.6296   -2.1696 H   0  0  0  0  0  0  0  0  0  0  0  0
  1  2  1  0  0  0  0
  1  6  2  0  0  0  0
  1 18  1  0  0  0  0
  2  3  2  0  0  0  0
  2 24  1  0  0  0  0
  3  4  1  0  0  0  0
  3 17  1  0  0  0  0
  4  5  2  0  0  0  0
  4  8  1  0  0  0  0
  5  6  1  0  0  0  0
  5  7  1  0  0  0  0
  6 25  1  0  0  0  0
  8  9  1  0  0  0  0
  9 10  1  0  0  0  0
  9 14  2  0  0  0  0
 10 11  2  0  0  0  0
 10 26  1  0  0  0  0
 11 12  1  0  0  0  0
 11 16  1  0  0  0  0
 12 13  2  0  0  0  0
 12 15  1  0  0  0  0
 13 14  1  0  0  0  0
 13 27  1  0  0  0  0
 14 28  1  0  0  0  0
 15 29  1  0  0  0  0
 18 19  1  0  0  0  0
 18 30  1  0  0  0  0
 18 31  1  0  0  0  0
 19 20  1  0  0  0  0
 19 23  1  0  0  0  0
 19 32  1  6  0  0  0
 20 21  2  0  0  0  0
 20 22  1  0  0  0  0
 22 33  1  0  0  0  0
 23 34  1  0  0  0  0
 23 35  1  0  0  0  0
M  END
$$$$
